data/ENWL_4w_Network1_Feeders1and2 copy/Lines2_v2.txt
! Feeder 2
! Imported from Lines.txt, with modified linecodes
! ----------------------------------------------------------------------------------------------
New Line.F2_LINE0 Bus1=sourcebus.1.2.3.4 Bus2=F2_1.1.2.3.4 phases=4 Linecode=LC3 Length=1 Units=m
New Line.F2_LINE1 Bus1=F2_1.1.2.3.4 Bus2=F2_2.1.2.3.4 phases=4 Linecode=LC3 Length=1.2678 Units=m
New Line.F2_LINE2 Bus1=F2_2.1.2.3.4 Bus2=F2_3.1.2.3.4 phases=4 Linecode=LC3 Length=0.14701 Units=m
New Line.F2_LINE3 Bus1=F2_3.1.2.3.4 Bus2=F2_4.1.2.3.4 phases=4 Linecode=LC3 Length=0.11539 Units=m
New Line.F2_LINE4 Bus1=F2_4.1.2.3.4 Bus2=F2_5.1.2.3.4 phases=4 Linecode=LC3 Length=0.091935 Units=m
New Line.F2_LINE5 Bus1=F2_5.1.2.3.4 Bus2=F2_6.1.2.3.4 phases=4 Linecode=LC3 Length=0.10826 Units=m
New Line.F2_LINE6 Bus1=F2_6.1.2.3.4 Bus2=F2_7.1.2.3.4 phases=4 Linecode=LC3 Length=10.9021 Units=m
New Line.F2_LINE7 Bus1=F2_7.1.2.3.4 Bus2=F2_8.1.2.3.4 phases=4 Linecode=LC3 Length=0.40028 Units=m
New Line.F2_LINE8 Bus1=F2_8.1.2.3.4 Bus2=F2_9.1.2.3.4 phases=4 Linecode=LC3 Length=0.298 Units=m
New Line.F2_LINE9 Bus1=F2_9.1.2.3.4 Bus2=F2_10.1.2.3.4 phases=4 Linecode=LC3 Length=0.37317 Units=m
New Line.F2_LINE10 Bus1=F2_10.1.2.3.4 Bus2=F2_11.1.2.3.4 phases=4 Linecode=LC3 Length=0.39461 Units=m
New Line.F2_LINE11 Bus1=F2_11.1.2.3.4 Bus2=F2_12.1.2.3.4 phases=4 Linecode=LC3 Length=0.35891 Units=m
New Line.F2_LINE12 Bus1=F2_12.1.2.3.4 Bus2=F2_13.1.2.3.4 phases=4 Linecode=LC3 Length=0.43804 Units=m
New Line.F2_LINE13 Bus1=F2_13.1.2.3.4 Bus2=F2_14.1.2.3.4 phases=4 Linecode=LC3 Length=7.3529 Units=m
New Line.F2_LINE14 Bus1=F2_14.1.2.3.4 Bus2=F2_15.1.2.3.4 phases=4 Linecode=LC3 Length=11.2962 Units=m
New Line.F2_LINE15 Bus1=F2_15.1.2.3.4 Bus2=F2_16.1.2.3.4 phases=4 Linecode=LC3 Length=3.6224 Units=m
New Line.F2_LINE16 Bus1=F2_16.1.2.3.4 Bus2=F2_17.1.2.3.4 phases=4 Linecode=LC3 Length=0.31933 Units=m
New Line.F2_LINE17 Bus1=F2_16.1.2.3.4 Bus2=F2_18.1.2.3.4 phases=4 Linecode=LC3 Length=3.9213 Units=m
New Line.F2_LINE18 Bus1=F2_17.1.2.3.4 Bus2=F2_19.1.2.3.4 phases=4 Linecode=LC3 Length=0.09014 Units=m
New Line.F2_LINE19 Bus1=F2_18.1.2.3.4 Bus2=F2_20.1.2.3.4 phases=4 Linecode=LC3 Length=6.5359 Units=m
New Line.F2_LINE20 Bus1=F2_19.1.2.3.4 Bus2=F2_21.1.2.3.4 phases=4 Linecode=LC3 Length=0.095854 Units=m
New Line.F2_LINE21 Bus1=F2_20.1.2.3.4 Bus2=F2_22.1.2.3.4 phases=4 Linecode=LC3 Length=0.10668 Units=m
New Line.F2_LINE22 Bus1=F2_21.1.2.3.4 Bus2=F2_23.1.2.3.4 phases=4 Linecode=LC3 Length=0.076118 Units=m
New Line.F2_LINE23 Bus1=F2_22.1.2.3.4 Bus2=F2_24.1.2.3.4 phases=4 Linecode=LC3 Length=0.201 Units=m
New Line.F2_LINE24 Bus1=F2_23.1.2.3.4 Bus2=F2_25.1.2.3.4 phases=4 Linecode=LC3 Length=0.138 Units=m
New Line.F2_LINE25 Bus1=F2_24.1.2.3.4 Bus2=F2_26.1.2.3.4 phases=4 Linecode=LC3 Length=0.15048 Units=m
New Line.F2_LINE26 Bus1=F2_25.1.2.3.4 Bus2=F2_27.1.2.3.4 phases=4 Linecode=LC3 Length=0.29149 Units=m
New Line.F2_LINE27 Bus1=F2_26.1.2.3.4 Bus2=F2_28.1.2.3.4 phases=4 Linecode=LC3 Length=0.18296 Units=m
New Line.F2_LINE28 Bus1=F2_27.1.2.3.4 Bus2=F2_29.1.2.3.4 phases=4 Linecode=LC3 Length=5.9092 Units=m
New Line.F2_LINE29 Bus1=F2_28.1.2.3.4 Bus2=F2_30.1.2.3.4 phases=4 Linecode=LC3 Length=0.22495 Units=m
New Line.F2_LINE30 Bus1=F2_29.1.2.3.4 Bus2=F2_31.1.2.3.4 phases=4 Linecode=LC3 Length=0.615 Units=m
New Line.F2_LINE31 Bus1=F2_30.1.2.3.4 Bus2=F2_32.1.2.3.4 phases=4 Linecode=LC3 Length=0.18524 Units=m
New Line.F2_LINE32 Bus1=F2_32.1.2.3.4 Bus2=F2_33.1.2.3.4 phases=4 Linecode=LC3 Length=0.30245 Units=m
New Line.F2_LINE33 Bus1=F2_33.1.2.3.4 Bus2=F2_34.1.2.3.4 phases=4 Linecode=LC3 Length=0.27631 Units=m
New Line.F2_LINE34 Bus1=F2_34.1.2.3.4 Bus2=F2_35.1.2.3.4 phases=4 Linecode=LC3 Length=0.29119 Units=m
New Line.F2_LINE35 Bus1=F2_35.1.2.3.4 Bus2=F2_36.1.2.3.4 phases=4 Linecode=LC3 Length=0.068154 Units=m
New Line.F2_LINE36 Bus1=F2_36.1.2.3.4 Bus2=F2_37.1.2.3.4 phases=4 Linecode=LC3 Length=0.16313 Units=m
New Line.F2_LINE37 Bus1=F2_37.1.2.3.4 Bus2=F2_38.1.2.3.4 phases=4 Linecode=LC3 Length=0.39768 Units=m
New Line.F2_LINE38 Bus1=F2_38.1.2.3.4 Bus2=F2_39.1.2.3.4 phases=4 Linecode=LC3 Length=7.942 Units=m
New Line.F2_LINE39 Bus1=F2_39.1.2.3.4 Bus2=F2_40.1.2.3.4 phases=4 Linecode=LC3 Length=1.8421 Units=m
New Line.F2_LINE40 Bus1=F2_40.1.2.3.4 Bus2=F2_41.1.2.3.4 phases=4 Linecode=LC3 Length=0.52269 Units=m
New Line.F2_LINE41 Bus1=F2_40.1.2.3.4 Bus2=F2_42.1.2.3.4 phases=4 Linecode=LC3 Length=2.3487 Units=m
New Line.F2_LINE42 Bus1=F2_42.1.2.3.4 Bus2=F2_43.1.2.3.4 phases=4 Linecode=LC3 Length=0.45549 Units=m
New Line.F2_LINE43 Bus1=F2_43.1.2.3.4 Bus2=F2_44.1.2.3.4 phases=4 Linecode=LC3 Length=0.38293 Units=m
New Line.F2_LINE44 Bus1=F2_44.1.2.3.4 Bus2=F2_45.1.2.3.4 phases=4 Linecode=LC3 Length=0.42216 Units=m
New Line.F2_LINE45 Bus1=F2_45.1.2.3.4 Bus2=F2_46.1.2.3.4 phases=4 Linecode=LC3 Length=0.48601 Units=m
New Line.F2_LINE46 Bus1=F2_46.1.2.3.4 Bus2=F2_47.1.2.3.4 phases=4 Linecode=LC3 Length=0.7176 Units=m
New Line.F2_LINE47 Bus1=F2_47.1.2.3.4 Bus2=F2_48.1.2.3.4 phases=4 Linecode=LC3 Length=0.54623 Units=m
New Line.F2_LINE48 Bus1=F2_48.1.2.3.4 Bus2=F2_49.1.2.3.4 phases=4 Linecode=LC3 Length=0.47164 Units=m
New Line.F2_LINE49 Bus1=F2_49.1.2.3.4 Bus2=F2_50.1.2.3.4 phases=4 Linecode=LC3 Length=0.30936 Units=m
New Line.F2_LINE50 Bus1=F2_50.1.2.3.4 Bus2=F2_51.1.2.3.4 phases=4 Linecode=LC3 Length=0.3128 Units=m
New Line.F2_LINE51 Bus1=F2_51.1.2.3.4 Bus2=F2_52.1.2.3.4 phases=4 Linecode=LC3 Length=0.35569 Units=m
New Line.F2_LINE52 Bus1=F2_52.1.2.3.4 Bus2=F2_53.1.2.3.4 phases=4 Linecode=LC3 Length=0.65323 Units=m
New Line.F2_LINE53 Bus1=F2_53.1.2.3.4 Bus2=F2_54.1.2.3.4 phases=4 Linecode=LC3 Length=5.6025 Units=m
New Line.F2_LINE54 Bus1=F2_54.1.2.3.4 Bus2=F2_55.1.2.3.4 phases=4 Linecode=LC3 Length=0.16388 Units=m
New Line.F2_LINE55 Bus1=F2_55.1.2.3.4 Bus2=F2_56.1.2.3.4 phases=4 Linecode=LC3 Length=0.22588 Units=m
New Line.F2_LINE56 Bus1=F2_56.1.2.3.4 Bus2=F2_57.1.2.3.4 phases=4 Linecode=LC3 Length=0.23492 Units=m
New Line.F2_LINE57 Bus1=F2_57.1.2.3.4 Bus2=F2_58.1.2.3.4 phases=4 Linecode=LC3 Length=0.19624 Units=m
New Line.F2_LINE58 Bus1=F2_58.1.2.3.4 Bus2=F2_59.1.2.3.4 phases=4 Linecode=LC3 Length=0.28481 Units=m
New Line.F2_LINE59 Bus1=F2_59.1.2.3.4 Bus2=F2_60.1.2.3.4 phases=4 Linecode=LC3 Length=0.30895 Units=m
New Line.F2_LINE60 Bus1=F2_60.1.2.3.4 Bus2=F2_61.1.2.3.4 phases=4 Linecode=LC3 Length=0.34812 Units=m
New Line.F2_LINE61 Bus1=F2_61.1.2.3.4 Bus2=F2_62.1.2.3.4 phases=4 Linecode=LC3 Length=0.3491 Units=m
New Line.F2_LINE62 Bus1=F2_62.1.2.3.4 Bus2=F2_63.1.2.3.4 phases=4 Linecode=LC3 Length=0.24452 Units=m
New Line.F2_LINE63 Bus1=F2_63.1.2.3.4 Bus2=F2_64.1.2.3.4 phases=4 Linecode=LC3 Length=0.326 Units=m
New Line.F2_LINE64 Bus1=F2_64.1.2.3.4 Bus2=F2_65.1.2.3.4 phases=4 Linecode=LC3 Length=0.601 Units=m
New Line.F2_LINE65 Bus1=F2_65.1.2.3.4 Bus2=F2_66.1.2.3.4 phases=4 Linecode=LC8 Length=0.47332 Units=m
New Line.F2_LINE66 Bus1=F2_65.1.2.3.4 Bus2=F2_67.1.2.3.4 phases=4 Linecode=LC4 Length=4.28 Units=m
New Line.F2_LINE67 Bus1=F2_66.1.2.3.4 Bus2=F2_68.1.2.3.4 phases=4 Linecode=LC8 Length=0.72048 Units=m
New Line.F2_LINE68 Bus1=F2_67.1.2.3.4 Bus2=F2_69.1.2.3.4 phases=4 Linecode=LC4 Length=0.642 Units=m
New Line.F2_LINE69 Bus1=F2_67.1.2.3.4 Bus2=F2_70.1.2.3.4 phases=4 Linecode=LC4 Length=5.9972 Units=m
New Line.F2_LINE70 Bus1=F2_68.1.2.3.4 Bus2=F2_71.1.2.3.4 phases=4 Linecode=LC8 Length=1.0686 Units=m
New Line.F2_LINE71 Bus1=F2_70.1.2.3.4 Bus2=F2_72.1.2.3.4 phases=4 Linecode=LC4 Length=0.68171 Units=m
New Line.F2_LINE72 Bus1=F2_70.1.2.3.4 Bus2=F2_73.1.2.3.4 phases=4 Linecode=LC4 Length=2.604 Units=m
New Line.F2_LINE73 Bus1=F2_71.1.2.3.4 Bus2=F2_74.1.2.3.4 phases=4 Linecode=LC8 Length=0.85425 Units=m
New Line.F2_LINE74 Bus1=F2_73.1.2.3.4 Bus2=F2_75.1.2.3.4 phases=4 Linecode=LC4 Length=0.64295 Units=m
New Line.F2_LINE75 Bus1=F2_73.1.2.3.4 Bus2=F2_76.1.2.3.4 phases=4 Linecode=LC4 Length=6.4225 Units=m
New Line.F2_LINE76 Bus1=F2_74.1.2.3.4 Bus2=F2_77.1.2.3.4 phases=4 Linecode=LC8 Length=0.79964 Units=m
New Line.F2_LINE77 Bus1=F2_76.1.2.3.4 Bus2=F2_78.1.2.3.4 phases=4 Linecode=LC4 Length=0.61537 Units=m
New Line.F2_LINE78 Bus1=F2_76.1.2.3.4 Bus2=F2_79.1.2.3.4 phases=4 Linecode=LC4 Length=0.71391 Units=m
New Line.F2_LINE79 Bus1=F2_77.1.2.3.4 Bus2=F2_80.1.2.3.4 phases=4 Linecode=LC8 Length=0.56945 Units=m
New Line.F2_LINE80 Bus1=F2_79.1.2.3.4 Bus2=F2_81.1.2.3.4 phases=4 Linecode=LC4 Length=0.57213 Units=m
New Line.F2_LINE81 Bus1=F2_79.1.2.3.4 Bus2=F2_82.1.2.3.4 phases=4 Linecode=LC4 Length=4.0611 Units=m
New Line.F2_LINE82 Bus1=F2_80.1.2.3.4 Bus2=F2_83.1.2.3.4 phases=4 Linecode=LC8 Length=0.4081 Units=m
New Line.F2_LINE83 Bus1=F2_82.1.2.3.4 Bus2=F2_84.1.2.3.4 phases=4 Linecode=LC4 Length=0.40328 Units=m
New Line.F2_LINE84 Bus1=F2_83.1.2.3.4 Bus2=F2_85.1.2.3.4 phases=4 Linecode=LC8 Length=0.391 Units=m
New Line.F2_LINE85 Bus1=F2_84.1.2.3.4 Bus2=F2_86.1.2.3.4 phases=4 Linecode=LC4 Length=1.0115 Units=m
New Line.F2_LINE86 Bus1=F2_85.1.2.3.4 Bus2=F2_87.1.2.3.4 phases=4 Linecode=LC8 Length=0.36271 Units=m
New Line.F2_LINE87 Bus1=F2_86.1.2.3.4 Bus2=F2_88.1.2.3.4 phases=4 Linecode=LC4 Length=0.575 Units=m
New Line.F2_LINE88 Bus1=F2_86.1.2.3.4 Bus2=F2_89.1.2.3.4 phases=4 Linecode=LC4 Length=4.9754 Units=m
New Line.F2_LINE89 Bus1=F2_87.1.2.3.4 Bus2=F2_90.1.2.3.4 phases=4 Linecode=LC8 Length=0.9651 Units=m
New Line.F2_LINE90 Bus1=F2_89.1.2.3.4 Bus2=F2_91.1.2.3.4 phases=4 Linecode=LC4 Length=0.60701 Units=m
New Line.F2_LINE91 Bus1=F2_89.1.2.3.4 Bus2=F2_92.1.2.3.4 phases=4 Linecode=LC4 Length=4.2035 Units=m
New Line.F2_LINE92 Bus1=F2_90.1.2.3.4 Bus2=F2_93.1.2.3.4 phases=4 Linecode=LC8 Length=0.24449 Units=m
New Line.F2_LINE93 Bus1=F2_90.1.2.3.4 Bus2=F2_94.1.2.3.4 phases=4 Linecode=LC8 Length=1.0592 Units=m
New Line.F2_LINE94 Bus1=F2_92.1.2.3.4 Bus2=F2_95.1.2.3.4 phases=4 Linecode=LC4 Length=0.56542 Units=m
New Line.F2_LINE95 Bus1=F2_92.1.2.3.4 Bus2=F2_96.1.2.3.4 phases=4 Linecode=LC4 Length=5.4418 Units=m
New Line.F2_LINE96 Bus1=F2_93.1.2.3.4 Bus2=F2_97.1.2.3.4 phases=4 Linecode=LC8 Length=0.22561 Units=m
New Line.F2_LINE97 Bus1=F2_94.1.2.3.4 Bus2=F2_98.1.2.3.4 phases=4 Linecode=LC8 Length=5.4917 Units=m
New Line.F2_LINE98 Bus1=F2_96.1.2.3.4 Bus2=F2_99.1.2.3.4 phases=4 Linecode=LC4 Length=0.534 Units=m
New Line.F2_LINE99 Bus1=F2_96.1.2.3.4 Bus2=F2_100.1.2.3.4 phases=4 Linecode=LC4 Length=2.4912 Units=m
New Line.F2_LINE100 Bus1=F2_97.1.2.3.4 Bus2=F2_101.1.2.3.4 phases=4 Linecode=LC8 Length=0.138 Units=m
New Line.F2_LINE101 Bus1=F2_98.1.2.3.4 Bus2=F2_102.1.2.3.4 phases=4 Linecode=LC8 Length=0.97602 Units=m
New Line.F2_LINE102 Bus1=F2_98.1.2.3.4 Bus2=F2_103.1.2.3.4 phases=4 Linecode=LC8 Length=3.9741 Units=m
New Line.F2_LINE103 Bus1=F2_100.1.2.3.4 Bus2=F2_104.1.2.3.4 phases=4 Linecode=LC4 Length=3.9957 Units=m
New Line.F2_LINE104 Bus1=F2_100.1.2.3.4 Bus2=F2_105.1.2.3.4 phases=4 Linecode=LC3 Length=0.12802 Units=m
New Line.F2_LINE105 Bus1=F2_101.1.2.3.4 Bus2=F2_106.1.2.3.4 phases=4 Linecode=LC8 Length=0.16744 Units=m
New Line.F2_LINE106 Bus1=F2_102.1.2.3.4 Bus2=F2_107.1.2.3.4 phases=4 Linecode=LC8 Length=0.22539 Units=m
New Line.F2_LINE107 Bus1=F2_103.1.2.3.4 Bus2=F2_108.1.2.3.4 phases=4 Linecode=LC2 Length=1.4417 Units=m
New Line.F2_LINE108 Bus1=F2_103.1.2.3.4 Bus2=F2_109.1.2.3.4 phases=4 Linecode=LC8 Length=6.2021 Units=m
New Line.F2_LINE109 Bus1=F2_104.1.2.3.4 Bus2=F2_110.1.2.3.4 phases=4 Linecode=LC4 Length=6.2731 Units=m
New Line.F2_LINE110 Bus1=F2_105.1.2.3.4 Bus2=F2_111.1.2.3.4 phases=4 Linecode=LC3 Length=0.14339 Units=m
New Line.F2_LINE111 Bus1=F2_106.1.2.3.4 Bus2=F2_112.1.2.3.4 phases=4 Linecode=LC8 Length=0.115 Units=m
New Line.F2_LINE112 Bus1=F2_107.1.2.3.4 Bus2=F2_113.1.2.3.4 phases=4 Linecode=LC8 Length=0.20822 Units=m
New Line.F2_LINE113 Bus1=F2_108.1.2.3.4 Bus2=F2_114.1.2.3.4 phases=4 Linecode=LC2 Length=0.11424 Units=m
New Line.F2_LINE114 Bus1=F2_109.1.2.3.4 Bus2=F2_115.1.2.3.4 phases=4 Linecode=LC1 Length=18.6333 Units=m
New Line.F2_LINE115 Bus1=F2_109.1.2.3.4 Bus2=F2_116.1.2.3.4 phases=4 Linecode=LC8 Length=3.71 Units=m
New Line.F2_LINE116 Bus1=F2_110.1.2.3.4 Bus2=F2_117.1.2.3.4 phases=4 Linecode=LC4 Length=6.8138 Units=m
New Line.F2_LINE117 Bus1=F2_111.1.2.3.4 Bus2=F2_118.1.2.3.4 phases=4 Linecode=LC3 Length=0.1651 Units=m
New Line.F2_LINE118 Bus1=F2_112.1.2.3.4 Bus2=F2_119.1.2.3.4 phases=4 Linecode=LC8 Length=0.16744 Units=m
New Line.F2_LINE119 Bus1=F2_113.1.2.3.4 Bus2=F2_120.1.2.3.4 phases=4 Linecode=LC8 Length=0.19026 Units=m
New Line.F2_LINE120 Bus1=F2_114.1.2.3.4 Bus2=F2_121.1.2.3.4 phases=4 Linecode=LC2 Length=0.11322 Units=m
New Line.F2_LINE121 Bus1=F2_116.1.2.3.4 Bus2=F2_122.1.2.3.4 phases=4 Linecode=LC8 Length=3.578 Units=m
New Line.F2_LINE122 Bus1=F2_117.1.2.3.4 Bus2=F2_123.1.2.3.4 phases=4 Linecode=LC4 Length=0.24502 Units=m
New Line.F2_LINE123 Bus1=F2_118.1.2.3.4 Bus2=F2_124.1.2.3.4 phases=4 Linecode=LC3 Length=0.18768 Units=m
New Line.F2_LINE124 Bus1=F2_119.1.2.3.4 Bus2=F2_125.1.2.3.4 phases=4 Linecode=LC8 Length=0.57446 Units=m
New Line.F2_LINE125 Bus1=F2_120.1.2.3.4 Bus2=F2_126.1.2.3.4 phases=4 Linecode=LC8 Length=0.16323 Units=m
New Line.F2_LINE126 Bus1=F2_121.1.2.3.4 Bus2=F2_127.1.2.3.4 phases=4 Linecode=LC2 Length=0.11428 Units=m
New Line.F2_LINE127 Bus1=F2_122.1.2.3.4 Bus2=F2_128.1.2.3.4 phases=4 Linecode=LC8 Length=2.0533 Units=m
New Line.F2_LINE128 Bus1=F2_123.1.2.3.4 Bus2=F2_129.1.2.3.4 phases=4 Linecode=LC4 Length=0.19025 Units=m
New Line.F2_LINE129 Bus1=F2_124.1.2.3.4 Bus2=F2_130.1.2.3.4 phases=4 Linecode=LC3 Length=0.18768 Units=m
New Line.F2_LINE130 Bus1=F2_126.1.2.3.4 Bus2=F2_131.1.2.3.4 phases=4 Linecode=LC8 Length=0.24887 Units=m
New Line.F2_LINE131 Bus1=F2_127.1.2.3.4 Bus2=F2_132.1.2.3.4 phases=4 Linecode=LC2 Length=0.11385 Units=m
New Line.F2_LINE132 Bus1=F2_128.1.2.3.4 Bus2=F2_133.1.2.3.4 phases=4 Linecode=LC8 Length=2.2731 Units=m
New Line.F2_LINE133 Bus1=F2_129.1.2.3.4 Bus2=F2_134.1.2.3.4 phases=4 Linecode=LC4 Length=0.12572 Units=m
New Line.F2_LINE134 Bus1=F2_130.1.2.3.4 Bus2=F2_135.1.2.3.4 phases=4 Linecode=LC3 Length=0.16026 Units=m
New Line.F2_LINE135 Bus1=F2_131.1.2.3.4 Bus2=F2_136.1.2.3.4 phases=4 Linecode=LC8 Length=0.71943 Units=m
New Line.F2_LINE136 Bus1=F2_132.1.2.3.4 Bus2=F2_137.1.2.3.4 phases=4 Linecode=LC2 Length=0.11455 Units=m
New Line.F2_LINE137 Bus1=F2_133.1.2.3.4 Bus2=F2_138.1.2.3.4 phases=4 Linecode=LC8 Length=7.6821 Units=m
New Line.F2_LINE138 Bus1=F2_134.1.2.3.4 Bus2=F2_139.1.2.3.4 phases=4 Linecode=LC4 Length=0.17913 Units=m
New Line.F2_LINE139 Bus1=F2_135.1.2.3.4 Bus2=F2_140.1.2.3.4 phases=4 Linecode=LC3 Length=0.098858 Units=m
New Line.F2_LINE140 Bus1=F2_137.1.2.3.4 Bus2=F2_141.1.2.3.4 phases=4 Linecode=LC2 Length=0.11332 Units=m
New Line.F2_LINE141 Bus1=F2_138.1.2.3.4 Bus2=F2_142.1.2.3.4 phases=4 Linecode=LC8 Length=1.5452 Units=m
New Line.F2_LINE142 Bus1=F2_139.1.2.3.4 Bus2=F2_143.1.2.3.4 phases=4 Linecode=LC4 Length=0.32023 Units=m
New Line.F2_LINE143 Bus1=F2_140.1.2.3.4 Bus2=F2_144.1.2.3.4 phases=4 Linecode=LC3 Length=0.10465 Units=m
New Line.F2_LINE144 Bus1=F2_141.1.2.3.4 Bus2=F2_145.1.2.3.4 phases=4 Linecode=LC2 Length=0.11378 Units=m
New Line.F2_LINE145 Bus1=F2_142.1.2.3.4 Bus2=F2_146.1.2.3.4 phases=4 Linecode=LC8 Length=0.32006 Units=m
New Line.F2_LINE146 Bus1=F2_143.1.2.3.4 Bus2=F2_147.1.2.3.4 phases=4 Linecode=LC3 Length=1.2044 Units=m
New Line.F2_LINE147 Bus1=F2_143.1.2.3.4 Bus2=F2_148.1.2.3.4 phases=4 Linecode=LC3 Length=0.25849 Units=m
New Line.F2_LINE148 Bus1=F2_144.1.2.3.4 Bus2=F2_149.1.2.3.4 phases=4 Linecode=LC3 Length=1.1303 Units=m
New Line.F2_LINE149 Bus1=F2_145.1.2.3.4 Bus2=F2_150.1.2.3.4 phases=4 Linecode=LC2 Length=0.11411 Units=m
New Line.F2_LINE150 Bus1=F2_146.1.2.3.4 Bus2=F2_151.1.2.3.4 phases=4 Linecode=LC8 Length=0.27351 Units=m
New Line.F2_LINE151 Bus1=F2_147.1.2.3.4 Bus2=F2_152.1.2.3.4 phases=4 Linecode=LC3 Length=0.9003 Units=m
New Line.F2_LINE152 Bus1=F2_148.1.2.3.4 Bus2=F2_153.1.2.3.4 phases=4 Linecode=LC3 Length=1.1967 Units=m
New Line.F2_LINE153 Bus1=F2_149.1.2.3.4 Bus2=F2_154.1.2.3.4 phases=4 Linecode=LC3 Length=5.0734 Units=m
New Line.F2_LINE154 Bus1=F2_151.1.2.3.4 Bus2=F2_155.1.2.3.4 phases=4 Linecode=LC8 Length=0.25111 Units=m
New Line.F2_LINE155 Bus1=F2_152.1.2.3.4 Bus2=F2_156.1.2.3.4 phases=4 Linecode=LC3 Length=1.0219 Units=m
New Line.F2_LINE156 Bus1=F2_153.1.2.3.4 Bus2=F2_157.1.2.3.4 phases=4 Linecode=LC3 Length=1.0863 Units=m
New Line.F2_LINE157 Bus1=F2_154.1.2.3.4 Bus2=F2_158.1.2.3.4 phases=4 Linecode=LC3 Length=0.35328 Units=m
New Line.F2_LINE158 Bus1=F2_155.1.2.3.4 Bus2=F2_159.1.2.3.4 phases=4 Linecode=LC8 Length=0.24535 Units=m
New Line.F2_LINE159 Bus1=F2_156.1.2.3.4 Bus2=F2_160.1.2.3.4 phases=4 Linecode=LC3 Length=0.816 Units=m
New Line.F2_LINE160 Bus1=F2_157.1.2.3.4 Bus2=F2_161.1.2.3.4 phases=4 Linecode=LC3 Length=2.8635 Units=m
New Line.F2_LINE161 Bus1=F2_158.1.2.3.4 Bus2=F2_162.1.2.3.4 phases=4 Linecode=LC3 Length=0.24444 Units=m
New Line.F2_LINE162 Bus1=F2_159.1.2.3.4 Bus2=F2_163.1.2.3.4 phases=4 Linecode=LC8 Length=0.32177 Units=m
New Line.F2_LINE163 Bus1=F2_160.1.2.3.4 Bus2=F2_164.1.2.3.4 phases=4 Linecode=LC3 Length=0.68062 Units=m
New Line.F2_LINE164 Bus1=F2_161.1.2.3.4 Bus2=F2_165.1.2.3.4 phases=4 Linecode=LC3 Length=6.5871 Units=m
New Line.F2_LINE165 Bus1=F2_162.1.2.3.4 Bus2=F2_166.1.2.3.4 phases=4 Linecode=LC3 Length=0.16586 Units=m
New Line.F2_LINE166 Bus1=F2_163.1.2.3.4 Bus2=F2_167.1.2.3.4 phases=4 Linecode=LC8 Length=0.39623 Units=m
New Line.F2_LINE167 Bus1=F2_164.1.2.3.4 Bus2=F2_168.1.2.3.4 phases=4 Linecode=LC3 Length=0.8392 Units=m
New Line.F2_LINE168 Bus1=F2_165.1.2.3.4 Bus2=F2_169.1.2.3.4 phases=4 Linecode=LC6 Length=7.3715 Units=m
New Line.F2_LINE169 Bus1=F2_165.1.2.3.4 Bus2=F2_170.1.2.3.4 phases=4 Linecode=LC3 Length=2.1281 Units=m
New Line.F2_LINE170 Bus1=F2_166.1.2.3.4 Bus2=F2_171.1.2.3.4 phases=4 Linecode=LC3 Length=0.3027 Units=m
New Line.F2_LINE171 Bus1=F2_167.1.2.3.4 Bus2=F2_172.1.2.3.4 phases=4 Linecode=LC8 Length=2.8593 Units=m
New Line.F2_LINE172 Bus1=F2_168.1.2.3.4 Bus2=F2_173.1.2.3.4 phases=4 Linecode=LC3 Length=0.90468 Units=m
New Line.F2_LINE173 Bus1=F2_169.1.2.3.4 Bus2=F2_174.1.2.3.4 phases=4 Linecode=LC6 Length=0.4837 Units=m
New Line.F2_LINE174 Bus1=F2_170.1.2.3.4 Bus2=F2_175.1.2.3.4 phases=4 Linecode=LC6 Length=7.2098 Units=m
New Line.F2_LINE175 Bus1=F2_170.1.2.3.4 Bus2=F2_176.1.2.3.4 phases=4 Linecode=LC3 Length=10.1945 Units=m
New Line.F2_LINE176 Bus1=F2_171.1.2.3.4 Bus2=F2_177.1.2.3.4 phases=4 Linecode=LC3 Length=0.41015 Units=m
New Line.F2_LINE177 Bus1=F2_172.1.2.3.4 Bus2=F2_178.1.2.3.4 phases=4 Linecode=LC8 Length=9.9495 Units=m
New Line.F2_LINE178 Bus1=F2_173.1.2.3.4 Bus2=F2_179.1.2.3.4 phases=4 Linecode=LC3 Length=0.57899 Units=m
New Line.F2_LINE179 Bus1=F2_174.1.2.3.4 Bus2=F2_180.1.2.3.4 phases=4 Linecode=LC6 Length=0.3844 Units=m
New Line.F2_LINE180 Bus1=F2_175.1.2.3.4 Bus2=F2_181.1.2.3.4 phases=4 Linecode=LC6 Length=7.5749 Units=m
New Line.F2_LINE181 Bus1=F2_176.1.2.3.4 Bus2=F2_182.1.2.3.4 phases=4 Linecode=LC6 Length=0.27554 Units=m
New Line.F2_LINE182 Bus1=F2_176.1.2.3.4 Bus2=F2_183.1.2.3.4 phases=4 Linecode=LC3 Length=3.0002 Units=m
New Line.F2_LINE183 Bus1=F2_177.1.2.3.4 Bus2=F2_184.1.2.3.4 phases=4 Linecode=LC3 Length=0.8107 Units=m
New Line.F2_LINE184 Bus1=F2_178.1.2.3.4 Bus2=F2_185.1.2.3.4 phases=4 Linecode=LC8 Length=13.337 Units=m
New Line.F2_LINE185 Bus1=F2_179.1.2.3.4 Bus2=F2_186.1.2.3.4 phases=4 Linecode=LC3 Length=6.995 Units=m
New Line.F2_LINE186 Bus1=F2_180.1.2.3.4 Bus2=F2_187.1.2.3.4 phases=4 Linecode=LC6 Length=0.19807 Units=m
New Line.F2_LINE187 Bus1=F2_182.1.2.3.4 Bus2=F2_188.1.2.3.4 phases=4 Linecode=LC6 Length=0.20951 Units=m
New Line.F2_LINE188 Bus1=F2_183.1.2.3.4 Bus2=F2_189.1.2.3.4 phases=4 Linecode=LC6 Length=7.4458 Units=m
New Line.F2_LINE189 Bus1=F2_183.1.2.3.4 Bus2=F2_190.1.2.3.4 phases=4 Linecode=LC3 Length=4.0245 Units=m
New Line.F2_LINE190 Bus1=F2_184.1.2.3.4 Bus2=F2_191.1.2.3.4 phases=4 Linecode=LC3 Length=1.4826 Units=m
New Line.F2_LINE191 Bus1=F2_185.1.2.3.4 Bus2=F2_192.1.2.3.4 phases=4 Linecode=LC8 Length=4.6277 Units=m
New Line.F2_LINE192 Bus1=F2_186.1.2.3.4 Bus2=F2_193.1.2.3.4 phases=4 Linecode=LC3 Length=1.6496 Units=m
New Line.F2_LINE193 Bus1=F2_187.1.2.3.4 Bus2=F2_194.1.2.3.4 phases=4 Linecode=LC6 Length=0.33179 Units=m
New Line.F2_LINE194 Bus1=F2_188.1.2.3.4 Bus2=F2_195.1.2.3.4 phases=4 Linecode=LC6 Length=0.19228 Units=m
New Line.F2_LINE195 Bus1=F2_189.1.2.3.4 Bus2=F2_196.1.2.3.4 phases=4 Linecode=LC6 Length=5.1426 Units=m
New Line.F2_LINE196 Bus1=F2_190.1.2.3.4 Bus2=F2_197.1.2.3.4 phases=4 Linecode=LC6 Length=7.7733 Units=m
New Line.F2_LINE197 Bus1=F2_190.1.2.3.4 Bus2=F2_198.1.2.3.4 phases=4 Linecode=LC3 Length=5.7798 Units=m
New Line.F2_LINE198 Bus1=F2_191.1.2.3.4 Bus2=F2_199.1.2.3.4 phases=4 Linecode=LC3 Length=1.6369 Units=m
New Line.F2_LINE199 Bus1=F2_192.1.2.3.4 Bus2=F2_200.1.2.3.4 phases=4 Linecode=LC8 Length=4.134 Units=m
New Line.F2_LINE200 Bus1=F2_193.1.2.3.4 Bus2=F2_201.1.2.3.4 phases=4 Linecode=LC3 Length=2.9151 Units=m
New Line.F2_LINE201 Bus1=F2_194.1.2.3.4 Bus2=F2_202.1.2.3.4 phases=4 Linecode=LC6 Length=0.33984 Units=m
New Line.F2_LINE202 Bus1=F2_195.1.2.3.4 Bus2=F2_203.1.2.3.4 phases=4 Linecode=LC6 Length=0.41155 Units=m
New Line.F2_LINE203 Bus1=F2_197.1.2.3.4 Bus2=F2_204.1.2.3.4 phases=4 Linecode=LC6 Length=0.57905 Units=m
New Line.F2_LINE204 Bus1=F2_198.1.2.3.4 Bus2=F2_205.1.2.3.4 phases=4 Linecode=LC3 Length=1.9267 Units=m
New Line.F2_LINE205 Bus1=F2_199.1.2.3.4 Bus2=F2_206.1.2.3.4 phases=4 Linecode=LC6 Length=0.49573 Units=m
New Line.F2_LINE206 Bus1=F2_199.1.2.3.4 Bus2=F2_207.1.2.3.4 phases=4 Linecode=LC3 Length=1.582 Units=m
New Line.F2_LINE207 Bus1=F2_200.1.2.3.4 Bus2=F2_208.1.2.3.4 phases=4 Linecode=LC8 Length=0.31369 Units=m
New Line.F2_LINE208 Bus1=F2_201.1.2.3.4 Bus2=F2_209.1.2.3.4 phases=4 Linecode=LC6 Length=7.8473 Units=m
New Line.F2_LINE209 Bus1=F2_201.1.2.3.4 Bus2=F2_210.1.2.3.4 phases=4 Linecode=LC3 Length=12.6298 Units=m
New Line.F2_LINE210 Bus1=F2_202.1.2.3.4 Bus2=F2_211.1.2.3.4 phases=4 Linecode=LC6 Length=1.7807 Units=m
New Line.F2_LINE211 Bus1=F2_203.1.2.3.4 Bus2=F2_212.1.2.3.4 phases=4 Linecode=LC6 Length=0.26446 Units=m
New Line.F2_LINE212 Bus1=F2_204.1.2.3.4 Bus2=F2_213.1.2.3.4 phases=4 Linecode=LC6 Length=0.23119 Units=m
New Line.F2_LINE213 Bus1=F2_205.1.2.3.4 Bus2=F2_214.1.2.3.4 phases=4 Linecode=LC3 Length=1.2534 Units=m
New Line.F2_LINE214 Bus1=F2_206.1.2.3.4 Bus2=F2_215.1.2.3.4 phases=4 Linecode=LC6 Length=0.26681 Units=m
New Line.F2_LINE215 Bus1=F2_207.1.2.3.4 Bus2=F2_216.1.2.3.4 phases=4 Linecode=LC6 Length=0.18928 Units=m
New Line.F2_LINE216 Bus1=F2_207.1.2.3.4 Bus2=F2_217.1.2.3.4 phases=4 Linecode=LC3 Length=1.9147 Units=m
New Line.F2_LINE217 Bus1=F2_208.1.2.3.4 Bus2=F2_218.1.2.3.4 phases=4 Linecode=LC8 Length=0.25139 Units=m
New Line.F2_LINE218 Bus1=F2_209.1.2.3.4 Bus2=F2_219.1.2.3.4 phases=4 Linecode=LC6 Length=5.133 Units=m
New Line.F2_LINE219 Bus1=F2_210.1.2.3.4 Bus2=F2_220.1.2.3.4 phases=4 Linecode=LC6 Length=7.7335 Units=m
New Line.F2_LINE220 Bus1=F2_210.1.2.3.4 Bus2=F2_221.1.2.3.4 phases=4 Linecode=LC3 Length=3.3509 Units=m
New Line.F2_LINE221 Bus1=F2_211.1.2.3.4 Bus2=F2_222.1.2.3.4 phases=4 Linecode=LC6 Length=5.1057 Units=m
New Line.F2_LINE222 Bus1=F2_211.1.2.3.4 Bus2=F2_223.1.2.3.4 phases=4 Linecode=LC6 Length=5.1057 Units=m
New Line.F2_LINE223 Bus1=F2_212.1.2.3.4 Bus2=F2_224.1.2.3.4 phases=4 Linecode=LC6 Length=0.21543 Units=m
New Line.F2_LINE224 Bus1=F2_213.1.2.3.4 Bus2=F2_225.1.2.3.4 phases=4 Linecode=LC6 Length=0.15902 Units=m
New Line.F2_LINE225 Bus1=F2_214.1.2.3.4 Bus2=F2_226.1.2.3.4 phases=4 Linecode=LC3 Length=1.4148 Units=m
New Line.F2_LINE226 Bus1=F2_215.1.2.3.4 Bus2=F2_227.1.2.3.4 phases=4 Linecode=LC6 Length=0.34979 Units=m
New Line.F2_LINE227 Bus1=F2_216.1.2.3.4 Bus2=F2_228.1.2.3.4 phases=4 Linecode=LC6 Length=0.2594 Units=m
New Line.F2_LINE228 Bus1=F2_217.1.2.3.4 Bus2=F2_229.1.2.3.4 phases=4 Linecode=LC6 Length=7.733 Units=m
New Line.F2_LINE229 Bus1=F2_217.1.2.3.4 Bus2=F2_230.1.2.3.4 phases=4 Linecode=LC3 Length=2.803 Units=m
New Line.F2_LINE230 Bus1=F2_218.1.2.3.4 Bus2=F2_231.1.2.3.4 phases=4 Linecode=LC8 Length=0.32995 Units=m
New Line.F2_LINE231 Bus1=F2_220.1.2.3.4 Bus2=F2_232.1.2.3.4 phases=4 Linecode=LC6 Length=4.1663 Units=m
New Line.F2_LINE232 Bus1=F2_221.1.2.3.4 Bus2=F2_233.1.2.3.4 phases=4 Linecode=LC3 Length=0.21513 Units=m
New Line.F2_LINE233 Bus1=F2_221.1.2.3.4 Bus2=F2_234.1.2.3.4 phases=4 Linecode=LC3 Length=3.6388 Units=m
New Line.F2_LINE234 Bus1=F2_224.1.2.3.4 Bus2=F2_235.1.2.3.4 phases=4 Linecode=LC6 Length=0.20951 Units=m
New Line.F2_LINE235 Bus1=F2_225.1.2.3.4 Bus2=F2_236.1.2.3.4 phases=4 Linecode=LC6 Length=0.19228 Units=m
New Line.F2_LINE236 Bus1=F2_226.1.2.3.4 Bus2=F2_237.1.2.3.4 phases=4 Linecode=LC3 Length=1.0463 Units=m
New Line.F2_LINE237 Bus1=F2_227.1.2.3.4 Bus2=F2_238.1.2.3.4 phases=4 Linecode=LC6 Length=6.1969 Units=m
New Line.F2_LINE238 Bus1=F2_228.1.2.3.4 Bus2=F2_239.1.2.3.4 phases=4 Linecode=LC6 Length=0.27049 Units=m
New Line.F2_LINE239 Bus1=F2_229.1.2.3.4 Bus2=F2_240.1.2.3.4 phases=4 Linecode=LC6 Length=5.2959 Units=m
New Line.F2_LINE240 Bus1=F2_230.1.2.3.4 Bus2=F2_241.1.2.3.4 phases=4 Linecode=LC3 Length=11.1833 Units=m
New Line.F2_LINE241 Bus1=F2_231.1.2.3.4 Bus2=F2_242.1.2.3.4 phases=4 Linecode=LC8 Length=0.29165 Units=m
New Line.F2_LINE242 Bus1=F2_233.1.2.3.4 Bus2=F2_243.1.2.3.4 phases=4 Linecode=LC3 Length=0.21836 Units=m
New Line.F2_LINE243 Bus1=F2_234.1.2.3.4 Bus2=F2_244.1.2.3.4 phases=4 Linecode=LC6 Length=2.4762 Units=m
New Line.F2_LINE244 Bus1=F2_234.1.2.3.4 Bus2=F2_245.1.2.3.4 phases=4 Linecode=LC3 Length=6.2937 Units=m
New Line.F2_LINE245 Bus1=F2_235.1.2.3.4 Bus2=F2_246.1.2.3.4 phases=4 Linecode=LC6 Length=0.32758 Units=m
New Line.F2_LINE246 Bus1=F2_236.1.2.3.4 Bus2=F2_247.1.2.3.4 phases=4 Linecode=LC6 Length=0.21197 Units=m
New Line.F2_LINE247 Bus1=F2_237.1.2.3.4 Bus2=F2_248.1.2.3.4 phases=4 Linecode=LC3 Length=0.73831 Units=m
New Line.F2_LINE248 Bus1=F2_238.1.2.3.4 Bus2=F2_249.1.2.3.4 phases=4 Linecode=LC6 Length=0.37136 Units=m
New Line.F2_LINE249 Bus1=F2_239.1.2.3.4 Bus2=F2_250.1.2.3.4 phases=4 Linecode=LC6 Length=0.26417 Units=m
New Line.F2_LINE250 Bus1=F2_241.1.2.3.4 Bus2=F2_251.1.2.3.4 phases=4 Linecode=LC6 Length=6.7186 Units=m
New Line.F2_LINE251 Bus1=F2_241.1.2.3.4 Bus2=F2_252.1.2.3.4 phases=4 Linecode=LC3 Length=4.2833 Units=m
New Line.F2_LINE252 Bus1=F2_242.1.2.3.4 Bus2=F2_253.1.2.3.4 phases=4 Linecode=LC8 Length=0.36513 Units=m
New Line.F2_LINE253 Bus1=F2_243.1.2.3.4 Bus2=F2_254.1.2.3.4 phases=4 Linecode=LC3 Length=0.29969 Units=m
New Line.F2_LINE254 Bus1=F2_244.1.2.3.4 Bus2=F2_255.1.2.3.4 phases=4 Linecode=LC6 Length=0.22672 Units=m
New Line.F2_LINE255 Bus1=F2_246.1.2.3.4 Bus2=F2_256.1.2.3.4 phases=4 Linecode=LC6 Length=1.3444 Units=m
New Line.F2_LINE256 Bus1=F2_247.1.2.3.4 Bus2=F2_257.1.2.3.4 phases=4 Linecode=LC6 Length=0.21197 Units=m
New Line.F2_LINE257 Bus1=F2_248.1.2.3.4 Bus2=F2_258.1.2.3.4 phases=4 Linecode=LC3 Length=1.0723 Units=m
New Line.F2_LINE258 Bus1=F2_249.1.2.3.4 Bus2=F2_259.1.2.3.4 phases=4 Linecode=LC6 Length=0.40266 Units=m
New Line.F2_LINE259 Bus1=F2_250.1.2.3.4 Bus2=F2_260.1.2.3.4 phases=4 Linecode=LC6 Length=0.1516 Units=m
New Line.F2_LINE260 Bus1=F2_251.1.2.3.4 Bus2=F2_261.1.2.3.4 phases=4 Linecode=LC6 Length=1.136 Units=m
New Line.F2_LINE261 Bus1=F2_251.1.2.3.4 Bus2=F2_262.1.2.3.4 phases=4 Linecode=LC6 Length=1.207 Units=m
New Line.F2_LINE262 Bus1=F2_252.1.2.3.4 Bus2=F2_263.1.2.3.4 phases=4 Linecode=LC3 Length=8.1431 Units=m
New Line.F2_LINE263 Bus1=F2_253.1.2.3.4 Bus2=F2_264.1.2.3.4 phases=4 Linecode=LC8 Length=0.43115 Units=m
New Line.F2_LINE264 Bus1=F2_254.1.2.3.4 Bus2=F2_265.1.2.3.4 phases=4 Linecode=LC3 Length=0.29955 Units=m
New Line.F2_LINE265 Bus1=F2_255.1.2.3.4 Bus2=F2_266.1.2.3.4 phases=4 Linecode=LC6 Length=0.32487 Units=m
New Line.F2_LINE266 Bus1=F2_257.1.2.3.4 Bus2=F2_267.1.2.3.4 phases=4 Linecode=LC6 Length=0.75412 Units=m
New Line.F2_LINE267 Bus1=F2_258.1.2.3.4 Bus2=F2_268.1.2.3.4 phases=4 Linecode=LC3 Length=0.78189 Units=m
New Line.F2_LINE268 Bus1=F2_259.1.2.3.4 Bus2=F2_269.1.2.3.4 phases=4 Linecode=LC6 Length=0.46672 Units=m
New Line.F2_LINE269 Bus1=F2_260.1.2.3.4 Bus2=F2_270.1.2.3.4 phases=4 Linecode=LC6 Length=0.24444 Units=m
New Line.F2_LINE270 Bus1=F2_261.1.2.3.4 Bus2=F2_271.1.2.3.4 phases=4 Linecode=LC6 Length=4.8291 Units=m
New Line.F2_LINE271 Bus1=F2_262.1.2.3.4 Bus2=F2_272.1.2.3.4 phases=4 Linecode=LC6 Length=0.29 Units=m
New Line.F2_LINE272 Bus1=F2_263.1.2.3.4 Bus2=F2_273.1.2.3.4 phases=4 Linecode=LC6 Length=8.2289 Units=m
New Line.F2_LINE273 Bus1=F2_263.1.2.3.4 Bus2=F2_274.1.2.3.4 phases=4 Linecode=LC3 Length=7.6317 Units=m
New Line.F2_LINE274 Bus1=F2_264.1.2.3.4 Bus2=F2_275.1.2.3.4 phases=4 Linecode=LC8 Length=0.63545 Units=m
New Line.F2_LINE275 Bus1=F2_265.1.2.3.4 Bus2=F2_276.1.2.3.4 phases=4 Linecode=LC3 Length=0.16085 Units=m
New Line.F2_LINE276 Bus1=F2_266.1.2.3.4 Bus2=F2_277.1.2.3.4 phases=4 Linecode=LC6 Length=0.40594 Units=m
New Line.F2_LINE277 Bus1=F2_267.1.2.3.4 Bus2=F2_278.1.2.3.4 phases=4 Linecode=LC6 Length=4.4991 Units=m
New Line.F2_LINE278 Bus1=F2_267.1.2.3.4 Bus2=F2_279.1.2.3.4 phases=4 Linecode=LC6 Length=4.4991 Units=m
New Line.F2_LINE279 Bus1=F2_268.1.2.3.4 Bus2=F2_280.1.2.3.4 phases=4 Linecode=LC3 Length=0.85234 Units=m
New Line.F2_LINE280 Bus1=F2_269.1.2.3.4 Bus2=F2_281.1.2.3.4 phases=4 Linecode=LC6 Length=2.4414 Units=m
New Line.F2_LINE281 Bus1=F2_270.1.2.3.4 Bus2=F2_282.1.2.3.4 phases=4 Linecode=LC6 Length=0.31208 Units=m
New Line.F2_LINE282 Bus1=F2_272.1.2.3.4 Bus2=F2_283.1.2.3.4 phases=4 Linecode=LC6 Length=0.29099 Units=m
New Line.F2_LINE283 Bus1=F2_273.1.2.3.4 Bus2=F2_284.1.2.3.4 phases=4 Linecode=LC6 Length=5.0187 Units=m
New Line.F2_LINE284 Bus1=F2_274.1.2.3.4 Bus2=F2_285.1.2.3.4 phases=4 Linecode=LC6 Length=9.7001 Units=m
New Line.F2_LINE285 Bus1=F2_274.1.2.3.4 Bus2=F2_286.1.2.3.4 phases=4 Linecode=LC3 Length=6.2438 Units=m
New Line.F2_LINE286 Bus1=F2_275.1.2.3.4 Bus2=F2_287.1.2.3.4 phases=4 Linecode=LC8 Length=0.5602 Units=m
New Line.F2_LINE287 Bus1=F2_276.1.2.3.4 Bus2=F2_288.1.2.3.4 phases=4 Linecode=LC3 Length=0.21946 Units=m
New Line.F2_LINE288 Bus1=F2_277.1.2.3.4 Bus2=F2_289.1.2.3.4 phases=4 Linecode=LC6 Length=1.2446 Units=m
New Line.F2_LINE289 Bus1=F2_280.1.2.3.4 Bus2=F2_290.1.2.3.4 phases=4 Linecode=LC3 Length=0.58992 Units=m
New Line.F2_LINE290 Bus1=F2_281.1.2.3.4 Bus2=F2_291.1.2.3.4 phases=4 Linecode=LC6 Length=0.28618 Units=m
New Line.F2_LINE291 Bus1=F2_282.1.2.3.4 Bus2=F2_292.1.2.3.4 phases=4 Linecode=LC6 Length=1.1696 Units=m
New Line.F2_LINE292 Bus1=F2_283.1.2.3.4 Bus2=F2_293.1.2.3.4 phases=4 Linecode=LC6 Length=0.14132 Units=m
New Line.F2_LINE293 Bus1=F2_285.1.2.3.4 Bus2=F2_294.1.2.3.4 phases=4 Linecode=LC6 Length=0.31421 Units=m
New Line.F2_LINE294 Bus1=F2_286.1.2.3.4 Bus2=F2_295.1.2.3.4 phases=4 Linecode=LC3 Length=5.0736 Units=m
New Line.F2_LINE295 Bus1=F2_287.1.2.3.4 Bus2=F2_296.1.2.3.4 phases=4 Linecode=LC8 Length=0.64896 Units=m
New Line.F2_LINE296 Bus1=F2_288.1.2.3.4 Bus2=F2_297.1.2.3.4 phases=4 Linecode=LC3 Length=0.32796 Units=m
New Line.F2_LINE297 Bus1=F2_289.1.2.3.4 Bus2=F2_298.1.2.3.4 phases=4 Linecode=LC6 Length=0.27461 Units=m
New Line.F2_LINE298 Bus1=F2_290.1.2.3.4 Bus2=F2_299.1.2.3.4 phases=4 Linecode=LC3 Length=0.71512 Units=m
New Line.F2_LINE299 Bus1=F2_291.1.2.3.4 Bus2=F2_300.1.2.3.4 phases=4 Linecode=LC6 Length=0.2702 Units=m
New Line.F2_LINE300 Bus1=F2_293.1.2.3.4 Bus2=F2_301.1.2.3.4 phases=4 Linecode=LC6 Length=0.13647 Units=m
New Line.F2_LINE301 Bus1=F2_294.1.2.3.4 Bus2=F2_302.1.2.3.4 phases=4 Linecode=LC6 Length=0.28104 Units=m
New Line.F2_LINE302 Bus1=F2_295.1.2.3.4 Bus2=F2_303.1.2.3.4 phases=4 Linecode=LC3 Length=3.0506 Units=m
New Line.F2_LINE303 Bus1=F2_296.1.2.3.4 Bus2=F2_304.1.2.3.4 phases=4 Linecode=LC8 Length=0.3727 Units=m
New Line.F2_LINE304 Bus1=F2_297.1.2.3.4 Bus2=F2_305.1.2.3.4 phases=4 Linecode=LC3 Length=0.29557 Units=m
New Line.F2_LINE305 Bus1=F2_298.1.2.3.4 Bus2=F2_306.1.2.3.4 phases=4 Linecode=LC6 Length=0.22638 Units=m
New Line.F2_LINE306 Bus1=F2_299.1.2.3.4 Bus2=F2_307.1.2.3.4 phases=4 Linecode=LC3 Length=1.05 Units=m
New Line.F2_LINE307 Bus1=F2_300.1.2.3.4 Bus2=F2_308.1.2.3.4 phases=4 Linecode=LC6 Length=0.22062 Units=m
New Line.F2_LINE308 Bus1=F2_301.1.2.3.4 Bus2=F2_309.1.2.3.4 phases=4 Linecode=LC6 Length=0.80025 Units=m
New Line.F2_LINE309 Bus1=F2_302.1.2.3.4 Bus2=F2_310.1.2.3.4 phases=4 Linecode=LC6 Length=0.19873 Units=m
New Line.F2_LINE310 Bus1=F2_303.1.2.3.4 Bus2=F2_311.1.2.3.4 phases=4 Linecode=LC3 Length=1.1717 Units=m
New Line.F2_LINE311 Bus1=F2_304.1.2.3.4 Bus2=F2_312.1.2.3.4 phases=4 Linecode=LC8 Length=0.45283 Units=m
New Line.F2_LINE312 Bus1=F2_305.1.2.3.4 Bus2=F2_313.1.2.3.4 phases=4 Linecode=LC3 Length=0.34972 Units=m
New Line.F2_LINE313 Bus1=F2_306.1.2.3.4 Bus2=F2_314.1.2.3.4 phases=4 Linecode=LC6 Length=0.34976 Units=m
New Line.F2_LINE314 Bus1=F2_307.1.2.3.4 Bus2=F2_315.1.2.3.4 phases=4 Linecode=LC3 Length=0.8433 Units=m
New Line.F2_LINE315 Bus1=F2_308.1.2.3.4 Bus2=F2_316.1.2.3.4 phases=4 Linecode=LC6 Length=0.14001 Units=m
New Line.F2_LINE316 Bus1=F2_309.1.2.3.4 Bus2=F2_317.1.2.3.4 phases=4 Linecode=LC6 Length=4.8023 Units=m
New Line.F2_LINE317 Bus1=F2_310.1.2.3.4 Bus2=F2_318.1.2.3.4 phases=4 Linecode=LC6 Length=0.24537 Units=m
New Line.F2_LINE318 Bus1=F2_311.1.2.3.4 Bus2=F2_319.1.2.3.4 phases=4 Linecode=LC2 Length=7.9319 Units=m
New Line.F2_LINE319 Bus1=F2_311.1.2.3.4 Bus2=F2_320.1.2.3.4 phases=4 Linecode=LC3 Length=0.86868 Units=m
New Line.F2_LINE320 Bus1=F2_312.1.2.3.4 Bus2=F2_321.1.2.3.4 phases=4 Linecode=LC8 Length=0.41448 Units=m
New Line.F2_LINE321 Bus1=F2_314.1.2.3.4 Bus2=F2_322.1.2.3.4 phases=4 Linecode=LC6 Length=3.8953 Units=m
New Line.F2_LINE322 Bus1=F2_315.1.2.3.4 Bus2=F2_323.1.2.3.4 phases=4 Linecode=LC3 Length=0.86875 Units=m
New Line.F2_LINE323 Bus1=F2_316.1.2.3.4 Bus2=F2_324.1.2.3.4 phases=4 Linecode=LC6 Length=0.49368 Units=m
New Line.F2_LINE324 Bus1=F2_318.1.2.3.4 Bus2=F2_325.1.2.3.4 phases=4 Linecode=LC6 Length=0.23314 Units=m
New Line.F2_LINE325 Bus1=F2_319.1.2.3.4 Bus2=F2_326.1.2.3.4 phases=4 Linecode=LC2 Length=5.3493 Units=m
New Line.F2_LINE326 Bus1=F2_319.1.2.3.4 Bus2=F2_327.1.2.3.4 phases=4 Linecode=LC2 Length=5.3493 Units=m
New Line.F2_LINE327 Bus1=F2_320.1.2.3.4 Bus2=F2_328.1.2.3.4 phases=4 Linecode=LC3 Length=0.67887 Units=m
New Line.F2_LINE328 Bus1=F2_321.1.2.3.4 Bus2=F2_329.1.2.3.4 phases=4 Linecode=LC8 Length=0.56602 Units=m
New Line.F2_LINE329 Bus1=F2_322.1.2.3.4 Bus2=F2_330.1.2.3.4 phases=4 Linecode=LC6 Length=0.15988 Units=m
New Line.F2_LINE330 Bus1=F2_323.1.2.3.4 Bus2=F2_331.1.2.3.4 phases=4 Linecode=LC3 Length=0.8244 Units=m
New Line.F2_LINE331 Bus1=F2_324.1.2.3.4 Bus2=F2_332.1.2.3.4 phases=4 Linecode=LC6 Length=5.7252 Units=m
New Line.F2_LINE332 Bus1=F2_325.1.2.3.4 Bus2=F2_333.1.2.3.4 phases=4 Linecode=LC6 Length=0.19393 Units=m
New Line.F2_LINE333 Bus1=F2_328.1.2.3.4 Bus2=F2_334.1.2.3.4 phases=4 Linecode=LC3 Length=1.3548 Units=m
New Line.F2_LINE334 Bus1=F2_329.1.2.3.4 Bus2=F2_335.1.2.3.4 phases=4 Linecode=LC8 Length=2.1841 Units=m
New Line.F2_LINE335 Bus1=F2_330.1.2.3.4 Bus2=F2_336.1.2.3.4 phases=4 Linecode=LC6 Length=0.21537 Units=m
New Line.F2_LINE336 Bus1=F2_331.1.2.3.4 Bus2=F2_337.1.2.3.4 phases=4 Linecode=LC3 Length=6.1793 Units=m
New Line.F2_LINE337 Bus1=F2_331.1.2.3.4 Bus2=F2_338.1.2.3.4 phases=4 Linecode=LC3 Length=1.019 Units=m
New Line.F2_LINE338 Bus1=F2_333.1.2.3.4 Bus2=F2_339.1.2.3.4 phases=4 Linecode=LC6 Length=0.36749 Units=m
New Line.F2_LINE339 Bus1=F2_334.1.2.3.4 Bus2=F2_340.1.2.3.4 phases=4 Linecode=LC3 Length=0.8471 Units=m
New Line.F2_LINE340 Bus1=F2_335.1.2.3.4 Bus2=F2_341.1.2.3.4 phases=4 Linecode=LC8 Length=12.7317 Units=m
New Line.F2_LINE341 Bus1=F2_336.1.2.3.4 Bus2=F2_342.1.2.3.4 phases=4 Linecode=LC6 Length=0.18832 Units=m
New Line.F2_LINE342 Bus1=F2_337.1.2.3.4 Bus2=F2_343.1.2.3.4 phases=4 Linecode=LC3 Length=0.53828 Units=m
New Line.F2_LINE343 Bus1=F2_338.1.2.3.4 Bus2=F2_344.1.2.3.4 phases=4 Linecode=LC3 Length=7.4447 Units=m
New Line.F2_LINE344 Bus1=F2_339.1.2.3.4 Bus2=F2_345.1.2.3.4 phases=4 Linecode=LC6 Length=2.66 Units=m
New Line.F2_LINE345 Bus1=F2_340.1.2.3.4 Bus2=F2_346.1.2.3.4 phases=4 Linecode=LC3 Length=1.234 Units=m
New Line.F2_LINE346 Bus1=F2_341.1.2.3.4 Bus2=F2_347.1.2.3.4 phases=4 Linecode=LC8 Length=0.43233 Units=m
New Line.F2_LINE347 Bus1=F2_342.1.2.3.4 Bus2=F2_348.1.2.3.4 phases=4 Linecode=LC6 Length=0.21465 Units=m
New Line.F2_LINE348 Bus1=F2_343.1.2.3.4 Bus2=F2_349.1.2.3.4 phases=4 Linecode=LC3 Length=0.45839 Units=m
New Line.F2_LINE349 Bus1=F2_344.1.2.3.4 Bus2=F2_350.1.2.3.4 phases=4 Linecode=LC6 Length=6.8184 Units=m
New Line.F2_LINE350 Bus1=F2_344.1.2.3.4 Bus2=F2_351.1.2.3.4 phases=4 Linecode=LC3 Length=13.1234 Units=m
New Line.F2_LINE351 Bus1=F2_346.1.2.3.4 Bus2=F2_352.1.2.3.4 phases=4 Linecode=LC3 Length=0.77824 Units=m
New Line.F2_LINE352 Bus1=F2_347.1.2.3.4 Bus2=F2_353.1.2.3.4 phases=4 Linecode=LC8 Length=0.44263 Units=m
New Line.F2_LINE353 Bus1=F2_348.1.2.3.4 Bus2=F2_354.1.2.3.4 phases=4 Linecode=LC6 Length=0.522 Units=m
New Line.F2_LINE354 Bus1=F2_349.1.2.3.4 Bus2=F2_355.1.2.3.4 phases=4 Linecode=LC3 Length=0.40447 Units=m
New Line.F2_LINE355 Bus1=F2_350.1.2.3.4 Bus2=F2_356.1.2.3.4 phases=4 Linecode=LC6 Length=5.6049 Units=m
New Line.F2_LINE356 Bus1=F2_351.1.2.3.4 Bus2=F2_357.1.2.3.4 phases=4 Linecode=LC6 Length=6.7441 Units=m
New Line.F2_LINE357 Bus1=F2_351.1.2.3.4 Bus2=F2_358.1.2.3.4 phases=4 Linecode=LC3 Length=3.0093 Units=m
New Line.F2_LINE358 Bus1=F2_352.1.2.3.4 Bus2=F2_359.1.2.3.4 phases=4 Linecode=LC3 Length=0.65613 Units=m
New Line.F2_LINE359 Bus1=F2_353.1.2.3.4 Bus2=F2_360.1.2.3.4 phases=4 Linecode=LC8 Length=0.54267 Units=m
New Line.F2_LINE360 Bus1=F2_354.1.2.3.4 Bus2=F2_361.1.2.3.4 phases=4 Linecode=LC6 Length=1.0967 Units=m
New Line.F2_LINE361 Bus1=F2_354.1.2.3.4 Bus2=F2_362.1.2.3.4 phases=4 Linecode=LC6 Length=1.0967 Units=m
New Line.F2_LINE362 Bus1=F2_355.1.2.3.4 Bus2=F2_363.1.2.3.4 phases=4 Linecode=LC3 Length=0.43584 Units=m
New Line.F2_LINE363 Bus1=F2_357.1.2.3.4 Bus2=F2_364.1.2.3.4 phases=4 Linecode=LC6 Length=5.499 Units=m
New Line.F2_LINE364 Bus1=F2_358.1.2.3.4 Bus2=F2_365.1.2.3.4 phases=4 Linecode=LC3 Length=0.19818 Units=m
New Line.F2_LINE365 Bus1=F2_358.1.2.3.4 Bus2=F2_366.1.2.3.4 phases=4 Linecode=LC3 Length=2.8695 Units=m
New Line.F2_LINE366 Bus1=F2_359.1.2.3.4 Bus2=F2_367.1.2.3.4 phases=4 Linecode=LC3 Length=1.244 Units=m
New Line.F2_LINE367 Bus1=F2_360.1.2.3.4 Bus2=F2_368.1.2.3.4 phases=4 Linecode=LC8 Length=7.6605 Units=m
New Line.F2_LINE368 Bus1=F2_363.1.2.3.4 Bus2=F2_369.1.2.3.4 phases=4 Linecode=LC3 Length=0.64086 Units=m
New Line.F2_LINE369 Bus1=F2_365.1.2.3.4 Bus2=F2_370.1.2.3.4 phases=4 Linecode=LC3 Length=0.13294 Units=m
New Line.F2_LINE370 Bus1=F2_366.1.2.3.4 Bus2=F2_371.1.2.3.4 phases=4 Linecode=LC6 Length=2.1311 Units=m
New Line.F2_LINE371 Bus1=F2_366.1.2.3.4 Bus2=F2_372.1.2.3.4 phases=4 Linecode=LC3 Length=1.4344 Units=m
New Line.F2_LINE372 Bus1=F2_367.1.2.3.4 Bus2=F2_373.1.2.3.4 phases=4 Linecode=LC3 Length=2.0093 Units=m
New Line.F2_LINE373 Bus1=F2_368.1.2.3.4 Bus2=F2_374.1.2.3.4 phases=4 Linecode=LC8 Length=0.2452 Units=m
New Line.F2_LINE374 Bus1=F2_369.1.2.3.4 Bus2=F2_375.1.2.3.4 phases=4 Linecode=LC3 Length=0.54603 Units=m
New Line.F2_LINE375 Bus1=F2_370.1.2.3.4 Bus2=F2_376.1.2.3.4 phases=4 Linecode=LC3 Length=0.21225 Units=m
New Line.F2_LINE376 Bus1=F2_371.1.2.3.4 Bus2=F2_377.1.2.3.4 phases=4 Linecode=LC6 Length=0.51751 Units=m
New Line.F2_LINE377 Bus1=F2_373.1.2.3.4 Bus2=F2_378.1.2.3.4 phases=4 Linecode=LC3 Length=2.4825 Units=m
New Line.F2_LINE378 Bus1=F2_374.1.2.3.4 Bus2=F2_379.1.2.3.4 phases=4 Linecode=LC8 Length=0.055946 Units=m
New Line.F2_LINE379 Bus1=F2_375.1.2.3.4 Bus2=F2_380.1.2.3.4 phases=4 Linecode=LC3 Length=0.73814 Units=m
New Line.F2_LINE380 Bus1=F2_376.1.2.3.4 Bus2=F2_381.1.2.3.4 phases=4 Linecode=LC3 Length=0.17156 Units=m
New Line.F2_LINE381 Bus1=F2_377.1.2.3.4 Bus2=F2_382.1.2.3.4 phases=4 Linecode=LC6 Length=0.26011 Units=m
New Line.F2_LINE382 Bus1=F2_378.1.2.3.4 Bus2=F2_383.1.2.3.4 phases=4 Linecode=LC3 Length=3.4195 Units=m
New Line.F2_LINE383 Bus1=F2_379.1.2.3.4 Bus2=F2_384.1.2.3.4 phases=4 Linecode=LC8 Length=0.072402 Units=m
New Line.F2_LINE384 Bus1=F2_380.1.2.3.4 Bus2=F2_385.1.2.3.4 phases=4 Linecode=LC3 Length=7.4321 Units=m
New Line.F2_LINE385 Bus1=F2_381.1.2.3.4 Bus2=F2_386.1.2.3.4 phases=4 Linecode=LC3 Length=0.17831 Units=m
New Line.F2_LINE386 Bus1=F2_382.1.2.3.4 Bus2=F2_387.1.2.3.4 phases=4 Linecode=LC6 Length=0.2452 Units=m
New Line.F2_LINE387 Bus1=F2_383.1.2.3.4 Bus2=F2_388.1.2.3.4 phases=4 Linecode=LC3 Length=2.8291 Units=m
New Line.F2_LINE388 Bus1=F2_384.1.2.3.4 Bus2=F2_389.1.2.3.4 phases=4 Linecode=LC8 Length=0.073246 Units=m
New Line.F2_LINE389 Bus1=F2_385.1.2.3.4 Bus2=F2_390.1.2.3.4 phases=4 Linecode=LC3 Length=0.35124 Units=m
New Line.F2_LINE390 Bus1=F2_386.1.2.3.4 Bus2=F2_391.1.2.3.4 phases=4 Linecode=LC3 Length=0.14958 Units=m
New Line.F2_LINE391 Bus1=F2_387.1.2.3.4 Bus2=F2_392.1.2.3.4 phases=4 Linecode=LC6 Length=0.21019 Units=m
New Line.F2_LINE392 Bus1=F2_388.1.2.3.4 Bus2=F2_393.1.2.3.4 phases=4 Linecode=LC6 Length=6.068 Units=m
New Line.F2_LINE393 Bus1=F2_388.1.2.3.4 Bus2=F2_394.1.2.3.4 phases=4 Linecode=LC3 Length=3.6437 Units=m
New Line.F2_LINE394 Bus1=F2_389.1.2.3.4 Bus2=F2_395.1.2.3.4 phases=4 Linecode=LC8 Length=0.087658 Units=m
New Line.F2_LINE395 Bus1=F2_390.1.2.3.4 Bus2=F2_396.1.2.3.4 phases=4 Linecode=LC3 Length=1.351 Units=m
New Line.F2_LINE396 Bus1=F2_391.1.2.3.4 Bus2=F2_397.1.2.3.4 phases=4 Linecode=LC3 Length=0.9712 Units=m
New Line.F2_LINE397 Bus1=F2_392.1.2.3.4 Bus2=F2_398.1.2.3.4 phases=4 Linecode=LC6 Length=0.44931 Units=m
New Line.F2_LINE398 Bus1=F2_393.1.2.3.4 Bus2=F2_399.1.2.3.4 phases=4 Linecode=LC6 Length=4.0569 Units=m
New Line.F2_LINE399 Bus1=F2_394.1.2.3.4 Bus2=F2_400.1.2.3.4 phases=4 Linecode=LC3 Length=2.6562 Units=m
New Line.F2_LINE400 Bus1=F2_395.1.2.3.4 Bus2=F2_401.1.2.3.4 phases=4 Linecode=LC8 Length=0.090139 Units=m
New Line.F2_LINE401 Bus1=F2_398.1.2.3.4 Bus2=F2_402.1.2.3.4 phases=4 Linecode=LC6 Length=1.0331 Units=m
New Line.F2_LINE402 Bus1=F2_400.1.2.3.4 Bus2=F2_403.1.2.3.4 phases=4 Linecode=LC3 Length=5.9147 Units=m
New Line.F2_LINE403 Bus1=F2_401.1.2.3.4 Bus2=F2_404.1.2.3.4 phases=4 Linecode=LC8 Length=0.14013 Units=m
New Line.F2_LINE404 Bus1=F2_402.1.2.3.4 Bus2=F2_405.1.2.3.4 phases=4 Linecode=LC6 Length=0.77086 Units=m
New Line.F2_LINE405 Bus1=F2_403.1.2.3.4 Bus2=F2_406.1.2.3.4 phases=4 Linecode=LC6 Length=5.2004 Units=m
New Line.F2_LINE406 Bus1=F2_403.1.2.3.4 Bus2=F2_407.1.2.3.4 phases=4 Linecode=LC3 Length=1.6967 Units=m
New Line.F2_LINE407 Bus1=F2_404.1.2.3.4 Bus2=F2_408.1.2.3.4 phases=4 Linecode=LC8 Length=0.34266 Units=m
New Line.F2_LINE408 Bus1=F2_405.1.2.3.4 Bus2=F2_409.1.2.3.4 phases=4 Linecode=LC6 Length=0.36628 Units=m
New Line.F2_LINE409 Bus1=F2_406.1.2.3.4 Bus2=F2_410.1.2.3.4 phases=4 Linecode=LC6 Length=0.86161 Units=m
New Line.F2_LINE410 Bus1=F2_406.1.2.3.4 Bus2=F2_411.1.2.3.4 phases=4 Linecode=LC6 Length=0.85918 Units=m
New Line.F2_LINE411 Bus1=F2_407.1.2.3.4 Bus2=F2_412.1.2.3.4 phases=4 Linecode=LC3 Length=8.3989 Units=m
New Line.F2_LINE412 Bus1=F2_408.1.2.3.4 Bus2=F2_413.1.2.3.4 phases=4 Linecode=LC8 Length=0.79546 Units=m
New Line.F2_LINE413 Bus1=F2_409.1.2.3.4 Bus2=F2_414.1.2.3.4 phases=4 Linecode=LC6 Length=0.2531 Units=m
New Line.F2_LINE414 Bus1=F2_410.1.2.3.4 Bus2=F2_415.1.2.3.4 phases=4 Linecode=LC6 Length=5.6278 Units=m
New Line.F2_LINE415 Bus1=F2_411.1.2.3.4 Bus2=F2_416.1.2.3.4 phases=4 Linecode=LC6 Length=0.35116 Units=m
New Line.F2_LINE416 Bus1=F2_412.1.2.3.4 Bus2=F2_417.1.2.3.4 phases=4 Linecode=LC3 Length=2.446 Units=m
New Line.F2_LINE417 Bus1=F2_413.1.2.3.4 Bus2=F2_418.1.2.3.4 phases=4 Linecode=LC8 Length=1.7136 Units=m
New Line.F2_LINE418 Bus1=F2_414.1.2.3.4 Bus2=F2_419.1.2.3.4 phases=4 Linecode=LC6 Length=0.30959 Units=m
New Line.F2_LINE419 Bus1=F2_416.1.2.3.4 Bus2=F2_420.1.2.3.4 phases=4 Linecode=LC6 Length=0.17651 Units=m
New Line.F2_LINE420 Bus1=F2_417.1.2.3.4 Bus2=F2_421.1.2.3.4 phases=4 Linecode=LC3 Length=2.1229 Units=m
New Line.F2_LINE421 Bus1=F2_418.1.2.3.4 Bus2=F2_422.1.2.3.4 phases=4 Linecode=LC8 Length=0.09434 Units=m
New Line.F2_LINE422 Bus1=F2_419.1.2.3.4 Bus2=F2_423.1.2.3.4 phases=4 Linecode=LC6 Length=2.3991 Units=m
New Line.F2_LINE423 Bus1=F2_420.1.2.3.4 Bus2=F2_424.1.2.3.4 phases=4 Linecode=LC6 Length=0.10107 Units=m
New Line.F2_LINE424 Bus1=F2_421.1.2.3.4 Bus2=F2_425.1.2.3.4 phases=4 Linecode=LC3 Length=2.5729 Units=m
New Line.F2_LINE425 Bus1=F2_421.1.2.3.4 Bus2=F2_426.1.2.3.4 phases=4 Linecode=LC6 Length=5.2133 Units=m
New Line.F2_LINE426 Bus1=F2_422.1.2.3.4 Bus2=F2_427.1.2.3.4 phases=4 Linecode=LC8 Length=0.098838 Units=m
New Line.F2_LINE427 Bus1=F2_423.1.2.3.4 Bus2=F2_428.1.2.3.4 phases=4 Linecode=LC6 Length=0.35512 Units=m
New Line.F2_LINE428 Bus1=F2_424.1.2.3.4 Bus2=F2_429.1.2.3.4 phases=4 Linecode=LC6 Length=0.12143 Units=m
New Line.F2_LINE429 Bus1=F2_425.1.2.3.4 Bus2=F2_430.1.2.3.4 phases=4 Linecode=LC3 Length=3.6289 Units=m
New Line.F2_LINE430 Bus1=F2_425.1.2.3.4 Bus2=F2_431.1.2.3.4 phases=4 Linecode=LC3 Length=0.48941 Units=m
New Line.F2_LINE431 Bus1=F2_426.1.2.3.4 Bus2=F2_432.1.2.3.4 phases=4 Linecode=LC6 Length=1.079 Units=m
New Line.F2_LINE432 Bus1=F2_426.1.2.3.4 Bus2=F2_433.1.2.3.4 phases=4 Linecode=LC6 Length=1.08 Units=m
New Line.F2_LINE433 Bus1=F2_427.1.2.3.4 Bus2=F2_434.1.2.3.4 phases=4 Linecode=LC8 Length=0.083024 Units=m
New Line.F2_LINE434 Bus1=F2_428.1.2.3.4 Bus2=F2_435.1.2.3.4 phases=4 Linecode=LC6 Length=0.17923 Units=m
New Line.F2_LINE435 Bus1=F2_429.1.2.3.4 Bus2=F2_436.1.2.3.4 phases=4 Linecode=LC6 Length=0.618 Units=m
New Line.F2_LINE436 Bus1=F2_430.1.2.3.4 Bus2=F2_437.1.2.3.4 phases=4 Linecode=LC3 Length=2.7415 Units=m
New Line.F2_LINE437 Bus1=F2_431.1.2.3.4 Bus2=F2_438.1.2.3.4 phases=4 Linecode=LC3 Length=4.3441 Units=m
New Line.F2_LINE438 Bus1=F2_432.1.2.3.4 Bus2=F2_439.1.2.3.4 phases=4 Linecode=LC6 Length=0.16006 Units=m
New Line.F2_LINE439 Bus1=F2_433.1.2.3.4 Bus2=F2_440.1.2.3.4 phases=4 Linecode=LC6 Length=5.257 Units=m
New Line.F2_LINE440 Bus1=F2_434.1.2.3.4 Bus2=F2_441.1.2.3.4 phases=4 Linecode=LC8 Length=0.10977 Units=m
New Line.F2_LINE441 Bus1=F2_435.1.2.3.4 Bus2=F2_442.1.2.3.4 phases=4 Linecode=LC6 Length=0.066468 Units=m
New Line.F2_LINE442 Bus1=F2_436.1.2.3.4 Bus2=F2_443.1.2.3.4 phases=4 Linecode=LC6 Length=4.8319 Units=m
New Line.F2_LINE443 Bus1=F2_437.1.2.3.4 Bus2=F2_444.1.2.3.4 phases=4 Linecode=LC3 Length=1.9396 Units=m
New Line.F2_LINE444 Bus1=F2_438.1.2.3.4 Bus2=F2_445.1.2.3.4 phases=4 Linecode=LC3 Length=0.72958 Units=m
New Line.F2_LINE445 Bus1=F2_439.1.2.3.4 Bus2=F2_446.1.2.3.4 phases=4 Linecode=LC6 Length=0.078262 Units=m
New Line.F2_LINE446 Bus1=F2_441.1.2.3.4 Bus2=F2_447.1.2.3.4 phases=4 Linecode=LC8 Length=1.6719 Units=m
New Line.F2_LINE447 Bus1=F2_442.1.2.3.4 Bus2=F2_448.1.2.3.4 phases=4 Linecode=LC6 Length=0.14863 Units=m
New Line.F2_LINE448 Bus1=F2_444.1.2.3.4 Bus2=F2_449.1.2.3.4 phases=4 Linecode=LC3 Length=1.9092 Units=m
New Line.F2_LINE449 Bus1=F2_445.1.2.3.4 Bus2=F2_450.1.2.3.4 phases=4 Linecode=LC3 Length=1.201 Units=m
New Line.F2_LINE450 Bus1=F2_446.1.2.3.4 Bus2=F2_451.1.2.3.4 phases=4 Linecode=LC6 Length=0.14863 Units=m
New Line.F2_LINE451 Bus1=F2_448.1.2.3.4 Bus2=F2_452.1.2.3.4 phases=4 Linecode=LC6 Length=0.611 Units=m
New Line.F2_LINE452 Bus1=F2_449.1.2.3.4 Bus2=F2_453.1.2.3.4 phases=4 Linecode=LC3 Length=2.0202 Units=m
New Line.F2_LINE453 Bus1=F2_451.1.2.3.4 Bus2=F2_454.1.2.3.4 phases=4 Linecode=LC6 Length=0.164 Units=m
New Line.F2_LINE454 Bus1=F2_452.1.2.3.4 Bus2=F2_455.1.2.3.4 phases=4 Linecode=LC6 Length=5.158 Units=m
New Line.F2_LINE455 Bus1=F2_452.1.2.3.4 Bus2=F2_456.1.2.3.4 phases=4 Linecode=LC6 Length=5.158 Units=m
New Line.F2_LINE456 Bus1=F2_453.1.2.3.4 Bus2=F2_457.1.2.3.4 phases=4 Linecode=LC3 Length=1.2361 Units=m
New Line.F2_LINE457 Bus1=F2_454.1.2.3.4 Bus2=F2_458.1.2.3.4 phases=4 Linecode=LC6 Length=0.61012 Units=m
New Line.F2_LINE458 Bus1=F2_457.1.2.3.4 Bus2=F2_459.1.2.3.4 phases=4 Linecode=LC3 Length=2.5823 Units=m
New Line.F2_LINE459 Bus1=F2_457.1.2.3.4 Bus2=F2_460.1.2.3.4 phases=4 Linecode=LC6 Length=4.7429 Units=m
New Line.F2_LINE460 Bus1=F2_458.1.2.3.4 Bus2=F2_461.1.2.3.4 phases=4 Linecode=LC6 Length=5.1151 Units=m
New Line.F2_LINE461 Bus1=F2_459.1.2.3.4 Bus2=F2_462.1.2.3.4 phases=4 Linecode=LC3 Length=1.5639 Units=m
New Line.F2_LINE462 Bus1=F2_460.1.2.3.4 Bus2=F2_463.1.2.3.4 phases=4 Linecode=LC6 Length=0.45846 Units=m
New Line.F2_LINE463 Bus1=F2_462.1.2.3.4 Bus2=F2_464.1.2.3.4 phases=4 Linecode=LC3 Length=1.6957 Units=m
New Line.F2_LINE464 Bus1=F2_463.1.2.3.4 Bus2=F2_465.1.2.3.4 phases=4 Linecode=LC6 Length=0.23692 Units=m
New Line.F2_LINE465 Bus1=F2_464.1.2.3.4 Bus2=F2_466.1.2.3.4 phases=4 Linecode=LC3 Length=1.2335 Units=m
New Line.F2_LINE466 Bus1=F2_465.1.2.3.4 Bus2=F2_467.1.2.3.4 phases=4 Linecode=LC6 Length=0.51779 Units=m
New Line.F2_LINE467 Bus1=F2_466.1.2.3.4 Bus2=F2_468.1.2.3.4 phases=4 Linecode=LC3 Length=1.744 Units=m
New Line.F2_LINE468 Bus1=F2_467.1.2.3.4 Bus2=F2_469.1.2.3.4 phases=4 Linecode=LC6 Length=5.3108 Units=m
New Line.F2_LINE469 Bus1=F2_468.1.2.3.4 Bus2=F2_470.1.2.3.4 phases=4 Linecode=LC3 Length=2.2639 Units=m
New Line.F2_LINE470 Bus1=F2_470.1.2.3.4 Bus2=F2_471.1.2.3.4 phases=4 Linecode=LC3 Length=1.5627 Units=m
New Line.F2_LINE471 Bus1=F2_471.1.2.3.4 Bus2=F2_472.1.2.3.4 phases=4 Linecode=LC3 Length=2.6474 Units=m
New Line.F2_LINE472 Bus1=F2_471.1.2.3.4 Bus2=F2_473.1.2.3.4 phases=4 Linecode=LC6 Length=6.4848 Units=m
New Line.F2_LINE473 Bus1=F2_472.1.2.3.4 Bus2=F2_474.1.2.3.4 phases=4 Linecode=LC3 Length=0.772 Units=m
New Line.F2_LINE474 Bus1=F2_472.1.2.3.4 Bus2=F2_475.1.2.3.4 phases=4 Linecode=LC6 Length=0.2158 Units=m
New Line.F2_LINE475 Bus1=F2_472.1.2.3.4 Bus2=F2_476.1.2.3.4 phases=4 Linecode=LC6 Length=6.5334 Units=m
New Line.F2_LINE476 Bus1=F2_473.1.2.3.4 Bus2=F2_477.1.2.3.4 phases=4 Linecode=LC6 Length=5.4074 Units=m
New Line.F2_LINE477 Bus1=F2_475.1.2.3.4 Bus2=F2_478.1.2.3.4 phases=4 Linecode=LC6 Length=0.11709 Units=m
New Line.F2_LINE478 Bus1=F2_476.1.2.3.4 Bus2=F2_479.1.2.3.4 phases=4 Linecode=LC6 Length=5.2894 Units=m
New Line.F2_LINE479 Bus1=F2_478.1.2.3.4 Bus2=F2_480.1.2.3.4 phases=4 Linecode=LC6 Length=0.10141 Units=m
New Line.F2_LINE480 Bus1=F2_480.1.2.3.4 Bus2=F2_481.1.2.3.4 phases=4 Linecode=LC6 Length=0.24452 Units=m
New Line.F2_LINE481 Bus1=F2_481.1.2.3.4 Bus2=F2_482.1.2.3.4 phases=4 Linecode=LC6 Length=0.15473 Units=m
New Line.F2_LINE482 Bus1=F2_482.1.2.3.4 Bus2=F2_483.1.2.3.4 phases=4 Linecode=LC6 Length=0.16227 Units=m
New Line.F2_LINE483 Bus1=F2_483.1.2.3.4 Bus2=F2_484.1.2.3.4 phases=4 Linecode=LC6 Length=0.18588 Units=m
New Line.F2_LINE484 Bus1=F2_484.1.2.3.4 Bus2=F2_485.1.2.3.4 phases=4 Linecode=LC6 Length=0.23497 Units=m
New Line.F2_LINE485 Bus1=F2_485.1.2.3.4 Bus2=F2_486.1.2.3.4 phases=4 Linecode=LC6 Length=0.26042 Units=m
New Line.F2_LINE486 Bus1=F2_486.1.2.3.4 Bus2=F2_487.1.2.3.4 phases=4 Linecode=LC6 Length=0.21893 Units=m
New Line.F2_LINE487 Bus1=F2_487.1.2.3.4 Bus2=F2_488.1.2.3.4 phases=4 Linecode=LC6 Length=0.17918 Units=m
New Line.F2_LINE488 Bus1=F2_488.1.2.3.4 Bus2=F2_489.1.2.3.4 phases=4 Linecode=LC6 Length=3.9787 Units=m
New Line.F2_LINE489 Bus1=F2_489.1.2.3.4 Bus2=F2_490.1.2.3.4 phases=4 Linecode=LC6 Length=0.30787 Units=m
New Line.F2_LINE490 Bus1=F2_490.1.2.3.4 Bus2=F2_491.1.2.3.4 phases=4 Linecode=LC6 Length=0.25303 Units=m
New Line.F2_LINE491 Bus1=F2_491.1.2.3.4 Bus2=F2_492.1.2.3.4 phases=4 Linecode=LC6 Length=0.289 Units=m
New Line.F2_LINE492 Bus1=F2_492.1.2.3.4 Bus2=F2_493.1.2.3.4 phases=4 Linecode=LC6 Length=0.29785 Units=m
New Line.F2_LINE493 Bus1=F2_493.1.2.3.4 Bus2=F2_494.1.2.3.4 phases=4 Linecode=LC6 Length=0.44073 Units=m
New Line.F2_LINE494 Bus1=F2_494.1.2.3.4 Bus2=F2_495.1.2.3.4 phases=4 Linecode=LC6 Length=5.1036 Units=m
New Line.F2_LINE495 Bus1=F2_495.1.2.3.4 Bus2=F2_496.1.2.3.4 phases=4 Linecode=LC6 Length=0.074007 Units=m
New Line.F2_LINE496 Bus1=F2_496.1.2.3.4 Bus2=F2_497.1.2.3.4 phases=4 Linecode=LC6 Length=0.044385 Units=m
New Line.F2_LINE497 Bus1=F2_497.1.2.3.4 Bus2=F2_498.1.2.3.4 phases=4 Linecode=LC6 Length=0.10794 Units=m
New Line.F2_LINE498 Bus1=F2_498.1.2.3.4 Bus2=F2_499.1.2.3.4 phases=4 Linecode=LC6 Length=0.13695 Units=m
New Line.F2_LINE499 Bus1=F2_499.1.2.3.4 Bus2=F2_500.1.2.3.4 phases=4 Linecode=LC6 Length=0.13382 Units=m
New Line.F2_LINE500 Bus1=F2_500.1.2.3.4 Bus2=F2_501.1.2.3.4 phases=4 Linecode=LC6 Length=0.068622 Units=m
New Line.F2_LINE501 Bus1=F2_501.1.2.3.4 Bus2=F2_502.1.2.3.4 phases=4 Linecode=LC6 Length=0.098387 Units=m
New Line.F2_LINE502 Bus1=F2_502.1.2.3.4 Bus2=F2_503.1.2.3.4 phases=4 Linecode=LC6 Length=0.153 Units=m
New Line.F2_LINE503 Bus1=F2_503.1.2.3.4 Bus2=F2_504.1.2.3.4 phases=4 Linecode=LC6 Length=0.38204 Units=m
New Line.F2_LINE504 Bus1=F2_504.1.2.3.4 Bus2=F2_505.1.2.3.4 phases=4 Linecode=LC6 Length=0.3396 Units=m
! ----------------------------------------------------------------------------------------------